12
Total energy -44222.700213122
 Al   -0.097289    1.618603    2.182600
 Al    2.505759    2.598657    1.782779
 Al    1.348916    2.664878   -0.675134
  F    1.073320    2.931113    2.865137
  F   -1.401435    2.653737    2.032726
  F   -0.487403    0.170239    2.895359
  F    1.762015    0.987963    1.864993
  F    2.871038    1.999526   -0.076133
  F    1.143584    3.082241   -2.249011
  F    1.635086    3.845925    0.639257
  F    3.962933    3.061850    2.387212
  F    0.129924    1.745542    0.162140
