12
Total energy -44223.119083125
 Al    0.349754   -0.592235    1.758828
 Al    2.406249   -1.794520   -0.512557
 Al   -0.951929   -1.838954   -1.000943
  F    3.422535   -0.558007   -0.918737
  F   -1.843957   -0.642347   -1.707442
  F    2.728800   -3.410439   -0.641138
  F   -1.174504   -3.466510   -1.184807
  F    1.783134   -1.519926    1.167113
  F    0.800122   -1.482974   -1.288957
  F    0.113639   -0.909458    3.360421
  F    0.456555    0.882881    1.013283
  F   -0.848412   -1.526793    0.780936
