12
Total energy -44223.247233161
 Al    1.275668    0.032767    2.464220
 Al    1.317725    1.226921   -0.090766
 Al   -0.340254    0.826042   -2.336971
  F   -1.562434   -0.279578   -2.195497
  F    1.995068   -0.233250    0.811252
  F   -0.010390    1.715088   -3.689703
  F   -0.257289    1.844021   -0.828086
  F    2.508826    2.347427   -0.308298
  F    1.180764    0.157570   -1.587525
  F    0.547271    1.444442    1.571258
  F    2.415830    0.524415    3.553863
  F    0.109148   -1.104547    2.750698
